20
# CELL(abcABC):   -1.88973     1.88973     1.88973    90.00000    90.00000    90.00000  cell{atomic_unit}  Traj: x_centroid{angstrom} Step:           5  Bead:       0 
       C  3.79464e+00  3.25512e-01 -1.68425e-02
       H  4.21449e+00 -1.93175e-01 -8.83044e-01
       H  4.43360e+00  1.19757e+00  7.78911e-02
       H  3.91781e+00 -2.55027e-01  9.20719e-01
       C  2.28867e+00  8.30836e-01 -1.16394e-01
       O  2.01272e+00  1.99375e+00  1.05567e-01
       N  1.35505e+00 -2.16198e-01 -1.66511e-01
       H  1.72302e+00 -1.15068e+00 -6.23793e-02
       C -7.05883e-02 -1.98384e-01 -2.39382e-02
       C -7.96768e-01  1.01695e+00 -1.68439e-01
       H -2.44603e-01  2.01363e+00 -7.43623e-02
       C -2.16286e+00  1.01021e+00 -1.36670e-01
       H -2.65959e+00  2.02220e+00  5.84764e-02
       C -8.09092e-01 -1.37298e+00  1.30878e-01
       H -3.43816e-01 -2.29388e+00  4.04855e-01
       C -2.19452e+00 -1.38664e+00  1.13284e-01
       H -2.71885e+00 -2.32066e+00  2.41895e-01
       C -2.85734e+00 -1.83291e-01 -3.79029e-02
       O -4.22687e+00 -1.30857e-02 -1.36759e-01
       H -4.65510e+00 -8.26656e-01 -2.30322e-01
20
# CELL(abcABC):   -1.88973     1.88973     1.88973    90.00000    90.00000    90.00000  cell{atomic_unit}  Traj: x_centroid{angstrom} Step:          15  Bead:       0 
       C  3.76328e+00  3.64277e-01  2.08074e-02
       H  4.22464e+00 -2.37018e-01 -8.14841e-01
       H  4.49594e+00  1.19361e+00  1.93939e-01
       H  3.88823e+00 -2.32065e-01  9.45024e-01
       C  2.25152e+00  8.60062e-01 -1.06689e-01
       O  1.99115e+00  2.03224e+00  8.71968e-02
       N  1.31615e+00 -1.93094e-01 -1.60872e-01
       H  1.77180e+00 -1.10340e+00  9.21165e-03
       C -8.50097e-02 -1.58521e-01 -3.37439e-02
       C -7.85247e-01  1.04795e+00 -1.38597e-01
       H -2.09124e-01  1.93060e+00 -1.90604e-01
       C -2.16642e+00  1.03706e+00 -1.29018e-01
       H -2.65340e+00  1.95615e+00 -1.24351e-02
       C -8.58213e-01 -1.37002e+00  1.26308e-01
       H -2.00374e-01 -2.29185e+00  2.45789e-01
       C -2.24233e+00 -1.36196e+00  1.42943e-01
       H -2.76121e+00 -2.33892e+00  1.21928e-01
       C -2.90894e+00 -1.59850e-01 -3.64273e-02
       O -4.23858e+00 -5.61586e-03 -1.29852e-01
       H -4.59386e+00 -9.69652e-01 -1.40067e-01
20
# CELL(abcABC):   -1.88973     1.88973     1.88973    90.00000    90.00000    90.00000  cell{atomic_unit}  Traj: x_centroid{angstrom} Step:          25  Bead:       0 
       C  3.77216e+00  3.65146e-01  6.20874e-02
       H  4.12017e+00 -2.89431e-01 -7.10816e-01
       H  4.42404e+00  1.19370e+00  2.48722e-01
       H  3.82647e+00 -2.77621e-01  9.49024e-01
       C  2.27822e+00  8.37048e-01 -6.76585e-02
       O  2.00620e+00  2.04275e+00  6.37700e-02
       N  1.33433e+00 -2.04654e-01 -1.43891e-01
       H  1.79492e+00 -1.07746e+00  2.71770e-02
       C -7.75468e-02 -1.63882e-01 -3.75153e-02
       C -7.33151e-01  1.04075e+00 -1.02940e-01
       H -1.17086e-01  1.95786e+00 -3.16633e-01
       C -2.12750e+00  1.03123e+00 -1.06206e-01
       H -2.73815e+00  1.99712e+00 -1.68155e-01
       C -8.22177e-01 -1.38307e+00  1.34680e-01
       H -2.29230e-01 -2.25606e+00  7.97934e-02
       C -2.24698e+00 -1.37523e+00  1.71834e-01
       H -2.78877e+00 -2.33223e+00  8.99537e-02
       C -2.89765e+00 -1.37630e-01 -2.81592e-02
       O -4.23239e+00 -4.09927e-02 -1.15818e-01
       H -4.54586e+00 -9.27345e-01 -2.92460e-02
20
# CELL(abcABC):   -1.88973     1.88973     1.88973    90.00000    90.00000    90.00000  cell{atomic_unit}  Traj: x_centroid{angstrom} Step:          35  Bead:       0 
       C  3.75970e+00  3.79887e-01  1.07880e-01
       H  4.03916e+00 -3.03866e-01 -7.64163e-01
       H  4.36826e+00  1.31431e+00  2.37325e-01
       H  3.76589e+00 -2.88305e-01  1.00717e+00
       C  2.31601e+00  8.50711e-01 -1.53421e-02
       O  2.02467e+00  2.06086e+00  2.63934e-02
       N  1.37703e+00 -1.89902e-01 -1.27752e-01
       H  1.77767e+00 -1.13906e+00  8.62232e-03
       C -6.03345e-02 -1.74594e-01 -3.37589e-02
       C -6.88603e-01  1.06842e+00 -8.11460e-02
       H -1.37994e-01  1.94339e+00 -3.46577e-01
       C -2.10014e+00  1.06234e+00 -8.22537e-02
       H -2.67631e+00  1.91635e+00 -3.39504e-01
       C -7.77055e-01 -1.35415e+00  1.35987e-01
       H -2.72275e-01 -2.36752e+00 -3.27110e-02
       C -2.21386e+00 -1.36790e+00  1.87422e-01
       H -2.80343e+00 -2.27865e+00  1.31052e-01
       C -2.84700e+00 -1.06798e-01 -6.43771e-03
       O -4.23233e+00 -6.10046e-02 -9.73892e-02
       H -4.61904e+00 -9.64538e-01  8.51783e-02
20
# CELL(abcABC):   -1.88973     1.88973     1.88973    90.00000    90.00000    90.00000  cell{atomic_unit}  Traj: x_centroid{angstrom} Step:          45  Bead:       0 
       C  3.72665e+00  3.47198e-01  1.37132e-01
       H  3.96424e+00 -1.86871e-01 -7.45971e-01
       H  4.31423e+00  1.23729e+00  1.76164e-01
       H  3.79501e+00 -2.55374e-01  1.02701e+00
       C  2.32977e+00  8.45398e-01  2.49032e-02
       O  2.03858e+00  2.03037e+00 -2.19124e-02
       N  1.41092e+00 -2.15792e-01 -1.21644e-01
       H  1.73766e+00 -1.15711e+00 -6.00989e-02
       C -2.59218e-02 -1.98972e-01 -3.27175e-02
       C -6.87455e-01  1.05988e+00 -7.89372e-02
       H -1.24349e-01  1.98618e+00 -3.17625e-01
       C -2.07923e+00  1.07202e+00 -7.29922e-02
       H -2.62150e+00  1.96749e+00 -4.83295e-01
       C -7.65423e-01 -1.37986e+00  1.11468e-01
       H -3.67021e-01 -2.33859e+00 -4.02779e-02
       C -2.16459e+00 -1.35494e+00  1.75975e-01
       H -2.79068e+00 -2.28493e+00  2.00882e-01
       C -2.81209e+00 -1.30543e-01  2.35586e-02
       O -4.24029e+00 -9.43096e-02 -8.53236e-02
       H -4.63852e+00 -9.48544e-01  1.83705e-01
